test/resources/V1_13/scadaNetworkRoundTrip.xml
<?xml version="1.0" encoding="UTF-8"?>
<iidm:network xmlns:iidm="http://www.powsybl.org/schema/iidm/equipment/1_13" id="scada" caseDate="2017-06-25T17:43:00+01:00" forecastDistance="0" sourceFormat="test" minimumValidationLevel="EQUIPMENT">
    <iidm:substation id="sub">
        <iidm:voltageLevel id="vl" nominalV="440" topologyKind="BUS_BREAKER">
            <iidm:busBreakerTopology>
                <iidm:bus id="bus"/>
            </iidm:busBreakerTopology>
            <iidm:generator id="generator" energySource="OTHER" minP="0" maxP="100" voltageRegulatorOn="true" bus="bus" connectableBus="bus">
                <iidm:reactiveCapabilityCurve>
                    <iidm:point p="0" minQ="0" maxQ="0"/>
                    <iidm:point p="10" minQ="5" maxQ="15"/>
                </iidm:reactiveCapabilityCurve>
            </iidm:generator>
            <iidm:battery id="battery" minP="0" maxP="100" bus="bus" connectableBus="bus">
                <iidm:minMaxReactiveLimits minQ="-1.7976931348623157e+308" maxQ="1.7976931348623157e+308"/>
            </iidm:battery>
            <iidm:danglingLine id="dl" r="1" x="1" g="0" b="0" generationMinP="100" generationMaxP="200" generationVoltageRegulationOn="false" bus="bus" connectableBus="bus">
                <iidm:minMaxReactiveLimits minQ="100" maxQ="200"/>
            </iidm:danglingLine>
            <iidm:lccConverterStation id="lcs" lossFactor="80" powerFactor="0.20000000000000001" bus="bus" connectableBus="bus"/>
        </iidm:voltageLevel>
        <iidm:voltageLevel id="vl2" nominalV="220" topologyKind="BUS_BREAKER">
            <iidm:busBreakerTopology>
                <iidm:bus id="bus2"/>
            </iidm:busBreakerTopology>
            <iidm:load id="load" loadType="UNDEFINED" bus="bus2" connectableBus="bus2"/>
            <iidm:shunt id="shunt" sectionCount="0" voltageRegulatorOn="true" bus="bus2" connectableBus="bus2">
                <iidm:shuntLinearModel bPerSection="10" maximumSectionCount="1"/>
            </iidm:shunt>
            <iidm:staticVarCompensator id="svc" bMin="1.1000000000000001" bMax="3.2000000000000002" regulationMode="OFF" bus="bus2" connectableBus="bus2"/>
            <iidm:vscConverterStation id="vcs" voltageRegulatorOn="true" lossFactor="80" bus="bus2" connectableBus="bus2">
                <iidm:minMaxReactiveLimits minQ="-1.7976931348623157e+308" maxQ="1.7976931348623157e+308"/>
            </iidm:vscConverterStation>
        </iidm:voltageLevel>
        <iidm:voltageLevel id="vl3" nominalV="420" topologyKind="NODE_BREAKER">
            <iidm:nodeBreakerTopology>
                <iidm:switch id="switch" kind="BREAKER" retained="false" open="false" node1="0" node2="1"/>
            </iidm:nodeBreakerTopology>
        </iidm:voltageLevel>
        <iidm:twoWindingsTransformer id="tw2t" r="1" x="1" g="0" b="0" ratedU1="440" ratedU2="220" bus1="bus" connectableBus1="bus" voltageLevelId1="vl" bus2="bus2" connectableBus2="bus2" voltageLevelId2="vl2">
            <iidm:ratioTapChanger lowTapPosition="0" tapPosition="0" loadTapChangingCapabilities="false">
                <iidm:step r="1" x="1" g="0" b="0" rho="1"/>
            </iidm:ratioTapChanger>
            <iidm:phaseTapChanger lowTapPosition="0" tapPosition="0" regulationMode="CURRENT_LIMITER" regulating="false">
                <iidm:step r="1" x="1" g="0" b="0" rho="1" alpha="1"/>
            </iidm:phaseTapChanger>
        </iidm:twoWindingsTransformer>
        <iidm:threeWindingsTransformer id="t3wt" r1="1" x1="1" g1="0" b1="0" ratedU1="400" r2="1" x2="1" g2="0" b2="0" ratedU2="220" r3="1" x3="1" g3="0" b3="0" ratedU3="190" ratedU0="400" bus1="bus" connectableBus1="bus" voltageLevelId1="vl" bus2="bus2" connectableBus2="bus2" voltageLevelId2="vl2" node3="0" voltageLevelId3="vl3">
            <iidm:ratioTapChanger1 lowTapPosition="0" tapPosition="0" loadTapChangingCapabilities="false">
                <iidm:step r="1" x="1" g="0" b="0" rho="1"/>
            </iidm:ratioTapChanger1>
            <iidm:phaseTapChanger2 lowTapPosition="0" tapPosition="0" regulationMode="CURRENT_LIMITER" regulating="false">
                <iidm:step r="1" x="1" g="0" b="0" rho="1" alpha="1"/>
            </iidm:phaseTapChanger2>
        </iidm:threeWindingsTransformer>
    </iidm:substation>
    <iidm:line id="line" r="1" x="1" g1="0" b1="0" g2="0" b2="0" bus1="bus" connectableBus1="bus" voltageLevelId1="vl" bus2="bus2" connectableBus2="bus2" voltageLevelId2="vl2"/>
    <iidm:hvdcLine id="hvdcline" r="1" nominalV="400" convertersMode="SIDE_1_INVERTER_SIDE_2_RECTIFIER" maxP="20" converterStation1="lcs" converterStation2="vcs"/>
</iidm:network>
